Version 4
SHEET 1 1352 800
WIRE -496 0 -640 0
WIRE -352 0 -496 0
WIRE -208 0 -352 0
WIRE -96 0 -208 0
WIRE -64 0 -96 0
WIRE 48 0 16 0
WIRE 192 0 48 0
WIRE -640 16 -640 0
WIRE -208 16 -208 0
WIRE 192 16 192 0
WIRE -496 32 -496 0
WIRE -352 48 -352 0
WIRE -96 96 -96 0
WIRE 48 96 48 0
WIRE 192 96 192 80
WIRE -640 112 -640 96
WIRE -496 112 -496 96
WIRE -208 112 -208 80
WIRE -352 176 -352 128
WIRE -160 176 -352 176
WIRE 288 176 256 176
WIRE 400 176 288 176
WIRE 528 176 400 176
WIRE 640 176 528 176
WIRE 288 192 288 176
WIRE 400 192 400 176
WIRE 640 192 640 176
WIRE -352 208 -352 176
WIRE 528 208 528 176
WIRE -160 240 -256 240
WIRE 288 272 288 256
WIRE 528 288 528 272
WIRE 640 288 640 272
WIRE -256 304 -256 240
WIRE -160 304 -192 304
WIRE 400 304 400 272
WIRE 400 304 256 304
WIRE -352 320 -352 288
WIRE 400 320 400 304
WIRE -256 400 -256 384
WIRE -80 400 -80 384
WIRE -80 400 -256 400
WIRE 48 400 48 384
WIRE -80 416 -80 400
WIRE 176 432 176 384
WIRE 400 432 400 400
WIRE -80 496 -80 480
WIRE 48 496 48 480
FLAG -80 496 0
FLAG 176 432 0
FLAG 400 432 0
FLAG 640 288 0
FLAG 528 288 0
FLAG -640 0 IN
FLAG 640 176 OUT
FLAG -192 304 0
FLAG 48 496 0
FLAG -352 320 0
FLAG -208 112 0
FLAG 288 272 0
FLAG -496 112 0
FLAG -640 112 0
SYMBOL cap -96 416 R0
SYMATTR InstName C4
SYMATTR Value 1
SYMBOL voltage -640 0 R0
WINDOW 123 0 0 Left 2
WINDOW 39 0 0 Left 2
WINDOW 3 -229 157 Left 2
SYMATTR Value PWL(0 0 150u 5 2m 5 3m 14 4m 14 5m 5)
SYMATTR InstName V1
SYMBOL ind -80 16 R270
WINDOW 0 32 56 VTop 2
WINDOW 3 2 59 VBottom 2
SYMATTR InstName L1
SYMATTR Value 1.5
SYMATTR SpiceLine Rser=17.1m
SYMBOL res 384 176 R0
SYMATTR InstName R1
SYMATTR Value 1Meg
SYMBOL res 384 304 R0
SYMATTR InstName R2
SYMATTR Value 90.9k
SYMBOL cap 512 208 R0
WINDOW 3 40 35 Left 2
WINDOW 123 31 60 Left 2
SYMATTR Value 22
SYMATTR Value2 x4
SYMATTR SpiceLine Rser=10m
SYMATTR InstName C6
SYMBOL res 624 176 R0
SYMATTR InstName Rload
SYMATTR Value 9
SYMBOL res 32 384 R0
SYMATTR InstName R5
SYMATTR Value 47.5k
SYMBOL cap 176 16 R0
SYMATTR InstName C3
SYMATTR Value 0.1
SYMBOL LT8337 48 240 R0
SYMATTR InstName U1
SYMBOL cap -512 32 R0
SYMATTR InstName C1
SYMATTR Value 10
SYMBOL res -368 32 R0
SYMATTR InstName R3
SYMATTR Value 1Meg
SYMBOL res -368 192 R0
SYMATTR InstName R4
SYMATTR Value 330k
SYMBOL cap -224 16 R0
SYMATTR InstName C2
SYMATTR Value 1
SYMBOL res -272 288 R0
SYMATTR InstName R6
SYMATTR Value 100k
SYMBOL cap 272 192 R0
WINDOW 3 40 35 Left 2
WINDOW 123 41 62 Left 2
SYMATTR Value 1
SYMATTR Value2 x2
SYMATTR SpiceLine Rser=10m
SYMATTR InstName C5
TEXT 368 496 Left 2 !.tran 6m startup
TEXT 72 512 Left 2 ;2MHz
TEXT -656 536 Left 2 ;Note:\n  If the simulation model is not found please update with the "Sync Release" command from the "Tools" menu.\n  It remains the customer's responsibility to verify proper and reliable operation in the actual application.\n  Component substitution and printed circuit board layout may significantly affect circuit performance or reliability.\n  Contact your local sales representative for assistance. This circuit is distributed to customers only for use with ADI parts.\n  Copyright  2021 Analog Device Inc. All rights reserved.
TEXT 8 -96 Center 2 ;LT8337 - 28V, 5A Low IQ Synchronous Step-Up Silent Switcher with PassThru\nInput: 2.7V to 28V     Output: 12V @ 1.33A, Fsw = 2MHz
LINE Normal -208 240 -160 240 2
