Version 4
SHEET 1 1672 792
WIRE -320 -112 -336 -112
WIRE -240 -112 -320 -112
WIRE -144 -112 -240 -112
WIRE -32 -112 -144 -112
WIRE 80 -112 -32 -112
WIRE 112 -112 80 -112
WIRE 224 -112 192 -112
WIRE 368 -112 224 -112
WIRE 368 -96 368 -112
WIRE -336 -80 -336 -112
WIRE -32 -80 -32 -112
WIRE -240 -64 -240 -112
WIRE -144 -48 -144 -112
WIRE 80 0 80 -112
WIRE 224 0 224 -112
WIRE 368 0 368 -32
WIRE -32 16 -32 -16
WIRE -336 32 -336 0
WIRE -240 32 -240 0
WIRE -240 32 -256 32
WIRE -144 96 -144 32
WIRE 16 96 -144 96
WIRE 672 96 432 96
WIRE 768 96 672 96
WIRE 848 96 768 96
WIRE 880 96 848 96
WIRE -144 128 -144 96
WIRE 880 128 880 96
WIRE 672 144 672 96
WIRE 768 144 768 96
WIRE 16 192 -16 192
WIRE 480 192 432 192
WIRE 592 192 480 192
WIRE 480 208 480 192
WIRE -144 240 -144 208
WIRE -16 240 -16 192
WIRE 592 240 592 192
WIRE 672 256 672 208
WIRE 768 256 768 208
WIRE 880 256 880 208
WIRE 96 304 96 288
WIRE 368 304 368 288
WIRE 480 304 480 288
WIRE 480 304 368 304
WIRE 224 320 224 288
WIRE 368 320 368 304
WIRE 480 320 480 304
WIRE 96 400 96 384
WIRE 368 400 368 384
WIRE 592 400 592 304
WIRE 480 416 480 400
FLAG 224 320 0
FLAG -336 32 0
FLAG -320 -112 IN
FLAG 848 96 OUT
FLAG -32 16 0
FLAG -240 32 0
FLAG -144 240 0
FLAG -16 240 0
FLAG 96 400 0
FLAG 368 400 0
FLAG 480 416 0
FLAG 592 400 0
FLAG 672 256 0
FLAG 768 256 0
FLAG 880 256 0
SYMBOL voltage -336 -96 R0
WINDOW 123 0 0 Left 2
WINDOW 39 0 0 Left 2
WINDOW 3 -89 182 Left 2
SYMATTR Value PWL(0 0 250u 12)
SYMATTR InstName V1
SYMBOL cap -256 -64 R0
SYMATTR InstName C5
SYMATTR Value 10
SYMATTR SpiceLine Rser=3.44m
SYMBOL cap 352 -96 R0
SYMATTR InstName C2
SYMATTR Value 0.1
SYMBOL res 464 192 R0
SYMATTR InstName R1
SYMATTR Value 953k
SYMBOL res 464 304 R0
SYMATTR InstName R2
SYMATTR Value 1Meg
SYMBOL res 80 288 R0
SYMATTR InstName R6
SYMATTR Value 44.2k
SYMBOL cap 576 240 R0
SYMATTR InstName C9
SYMATTR Value 2.2
SYMBOL ind 96 -96 R270
WINDOW 0 32 56 VTop 2
WINDOW 3 5 56 VBottom 2
SYMATTR InstName L1
SYMATTR Value 6.8
SYMATTR SpiceLine Rser=68m
SYMBOL cap 752 144 R0
SYMATTR InstName C3
SYMATTR Value 10
SYMATTR SpiceLine Rser=3.44m
SYMBOL res 864 112 R0
SYMATTR InstName Rload
SYMATTR Value 50
SYMBOL PowerProducts\\LT8338 224 144 R0
SYMATTR InstName U1
SYMBOL res -160 -64 R0
SYMATTR InstName R3
SYMATTR Value 1Meg
SYMBOL res -160 112 R0
SYMATTR InstName R4
SYMATTR Value 402k
SYMBOL cap 656 144 R0
SYMATTR InstName C1
SYMATTR Value 0.1
SYMATTR SpiceLine Rser=20m
SYMBOL cap 352 320 R0
SYMATTR InstName C11
SYMATTR Value 1n
SYMBOL cap -48 -80 R0
SYMATTR InstName C6
SYMATTR Value 1
SYMATTR SpiceLine Rser=6.7m
TEXT 704 384 Left 2 !.tran 5ms startup
TEXT 120 400 Left 2 ;2MHz
TEXT 344 -240 Center 2 ;LT8338 - 40V, 1.2A Micropower Synchronous Boost Converter with PassThru\n24V Boost Converter\nInput = 4V to 30V, Output = 24V,  Iout = 480mA @12Vin, Fsw = 2MHz
TEXT -280 456 Left 2 ;Note:\n  A smaller CTRL capacitor is being used to reduce simulation time. See datasheet for typical values.\n  If the simulation model is not found please update with the "Sync Release" command from the "Tools" menu.\n  It remains the customer's responsibility to verify proper and reliable operation in the actual application.\n  Component substitution and printed circuit board layout may significantly affect circuit performance or reliability.\n  Contact your local sales representative for assistance. This circuit is distributed to customers only for use with ADI parts.\n  Copyright  2021 Analog Device Inc. All rights reserved.
TEXT -456 256 Left 2 ;Sync/Mode pin:\nBURST = GND\nBURST + SSFM = 100k to GND\nPULSE SKIP = Float\nPULSE SKIP + SSFM = INTVcc\nSYNC = External Clock
